Dynamic Simulation/ieee118dynamic_update_out(1).txt
ANDES 1.10.0
Copyright (C) 2015-2026 Hantao Cui

ANDES comes with ABSOLUTELY NO WARRANTY
Case file: ieee118dynamic_update.xlsx
Report time: 04/22/2026 01:32:42 PM

Power flow converged in 4 iterations.
Flat-start: No

Statistics:
Buses                            118
Generators                        54
Committed Gens                    54
Loads                             99
Shunts                            14
Lines                            186
Transformers      
Areas                              2

EXTENDED SUMMARY:
                              P (pu)            Q (pu)

Generation                    43.749            7.9568
Load                           42.42             14.38

BUS DATA:
                            Bus Name            Vm(pu)          Va(rad.)

1                       Riversde  V2             0.955           0.19151
2                       Pokagon   V2           0.97139           0.20093
3                       HickryCk  V2           0.96769           0.20693
4                       NwCarlsl  V2             0.998           0.27182
5                       Olive     V2             1.002           0.27959
6                       Kankakee  V2              0.99           0.23199
7                       JacksnRd  V2           0.98933           0.22423
8                       Olive     V1             1.015           0.36723
9                       Bequine   V1            1.0429           0.49384
10                      Breed     V1              1.05           0.62615
11                      SouthBnd  V2           0.98509           0.22699
12                      TwinBrch  V2              0.99           0.21797
13                      Concord   V2            0.9683           0.20298
14                      GoshenJt  V2           0.98359           0.20545
15                      FtWayne   V2              0.97           0.20026
16                      N. E.     V2            0.9839           0.21271
17                      Sorenson  V2           0.99509           0.24426
18                      McKinley  V2             0.973           0.20561
19                      Lincoln   V2             0.962           0.19748
20                      Adams     V2           0.95693           0.21277
21                      Jay       V2           0.95772           0.24047
22                      Randolph  V2           0.96902           0.28504
23                      CollCrnr  V2           0.99947           0.37086
24                      Trenton   V2             0.992           0.36851
25                      TannrsCk  V2              1.05           0.49183
26                      TannrsCk  V1             1.015            0.5229
27                      Madison   V2             0.968           0.27235
28                      Mullin    V2           0.96157           0.24223
29                      Grant     V2           0.96322           0.22489
30                      Sorenson  V1           0.98533            0.3322
31                      DeerCrk   V2             0.967           0.22693
32                      Delaware  V2             0.963           0.26286
33                      Haviland  V2           0.97093           0.18943
34                      Rockhill  V2             0.984           0.20091
35                      WestLima  V2           0.98045           0.19295
36                      Sterling  V2              0.98           0.19295
37                      EastLima  V2           0.99066           0.20886
38                      EastLima  V1           0.96129           0.29858
39                      NwLibrty  V2           0.96996           0.14969
40                      West End  V2              0.97           0.13082
41                      S.Tiffin  V2           0.96683           0.12307
42                      Howard    V2             0.985           0.15102
43                      S.Kenton  V2           0.97712           0.20002
44                      WMVernon  V2           0.98444           0.24336
45                      N.Newark  V2           0.98638           0.27528
46                      W.Lancst  V2             1.005           0.32421
47                      Crooksvl  V2            1.0171           0.36301
48                      Zanesvll  V2            1.0206           0.34939
49                      Philo     V2             1.025            0.3669
50                      WCambrdg  V2            1.0011           0.33131
51                      Newcmrst  V2           0.96688           0.28561
52                      SCoshoct  V2           0.95682           0.26897
53                      Wooster   V2           0.94598           0.25196
54                      Torrey    V2             0.955           0.26787
55                      Wagenhls  V2             0.952           0.26282
56                      Sunnysde  V2             0.954           0.26607
57                      WNwPhil1  V2           0.97058           0.28709
58                      WNwPhil2  V2           0.95904           0.27214
59                      Tidd      V2             0.985           0.33944
60                      SWKammer  V2           0.99316           0.40544
61                      W.Kammer  V2             0.995             0.421
62                      Natrium   V2             0.998           0.41024
63                      Tidd      V1           0.96874           0.39841
64                      Kammer    V1           0.98374           0.42924
65                      Muskngum  V1             1.005           0.48379
66                      Muskngum  V2              1.05           0.48099
67                      Summerfl  V2            1.0197           0.43492
68                      Sporn     V1            1.0032           0.48167
69                      Sporn     V2             1.035            0.5236
70                      Portsmth  V2             0.984           0.39476
71                      NPortsmt  V2           0.98684           0.38758
72                      Hillsbro  V2              0.98           0.36841
73                      Sargents  V2             0.991           0.38389
74                      Bellefnt  V2             0.958           0.37819
75                      SthPoint  V2           0.96733           0.40021
76                      Darrah    V2             0.943           0.38046
77                      Turner    V2             1.006           0.46689
78                      Chemical  V2            1.0034           0.46158
79                      CapitlHl  V2            1.0092            0.4668
80                      CabinCrk  V2              1.04           0.50597
81                      Kanawha   V1           0.99681           0.49122
82                      Logan     V2           0.98855           0.47598
83                      Sprigg    V2           0.98438           0.49679
84                      BetsyLne  V2            0.9797           0.54106
85                      BeaverCk  V2             0.985            0.5682
86                      Hazard    V2           0.98669            0.5443
87                      Pinevlle  V3             1.015           0.54883
88                      Fremont   V2           0.98745           0.62291
89                      ClinchRv  V2             1.005           0.69374
90                      Holston   V2             0.985           0.58186
91                      HolstonT  V2              0.98           0.58208
92                      Saltvlle  V2              0.99           0.59133
93                      Tazewell  V2           0.98543           0.53842
94                      Switchbk  V2           0.98983            0.5006
95                      Caldwell  V2           0.98033           0.48362
96                      Baileysv  V2           0.99228           0.48071
97                      Sundial   V2            1.0112           0.48722
98                      Bradley   V2            1.0235            0.4788
99                      Hinton    V2              1.01            0.4724
100                     Glen Lyn  V2             1.017           0.48972
101                     Wythe     V2           0.99142           0.51744
102                     Smythe    V2           0.98913           0.56488
103                     Claytor   V2              1.01           0.42442
104                     Hancock   V2             0.971           0.37957
105                     Roanoke   V2             0.965            0.3603
106                     Cloverdl  V2           0.96115           0.35576
107                     Reusens   V2             0.952           0.30688
108                     Blaine    V2           0.96621           0.33935
109                     Franklin  V2           0.96703           0.33145
110                     Fieldale  V2             0.973           0.31667
111                     DanRiver  V2              0.98           0.34539
112                     Danville  V2             0.975           0.26258
113                     Deer Crk  V2             0.993           0.24422
114                     WMedford  V2           0.96009           0.25702
115                     Medford   V2           0.96002           0.25688
116                     KygerCrk  V2             1.005           0.47408
117                     Corey     V2           0.97382           0.19108
118                     WHuntngd  V2           0.94944           0.38296

LINE DATA:
                           Line Name     Fr. Bus (idx)      To Bus (idx)       P From (pu)       Q From (pu)         P To (pu)         Q To (pu)

Line_1                      Line 1-2                 1                 2          -0.12353          -0.13041            0.1245           0.11006
Line_2                      Line 1-3                 1                 3          -0.38647          -0.17063           0.38897           0.16885
Line_3                      Line 4-5                 4                 5           -1.0323          -0.26792            1.0343           0.27493
Line_4                      Line 3-5                 3                 5          -0.68111          -0.14489           0.69349           0.17284
Line_5                      Line 5-6                 5                 6            0.8847          0.041064           -0.8754         -0.012987
Line_6                      Line 6-7                 6                 7            0.3554         -0.047715           -0.3548          0.045052
Line_7                      Line 8-9                 8                 9           -4.4063          -0.89733            4.4525           0.24429
Line_8                      Line 8-5                 8                 5            3.3847            1.2473           -3.3847          -0.92008
Line_9                     Line 9-10                 9                10           -4.4525          -0.24429               4.5          -0.51042
Line_10                    Line 4-11                 4                11            0.6423         -0.002177          -0.63364          0.013491
Line_11                    Line 5-11                 5                11           0.77225           0.02966          -0.76016        -0.0062058
Line_12                   Line 11-12                11                12           0.34295          -0.35137          -0.34148           0.35131
Line_13                    Line 2-12                 2                12           -0.3245          -0.20006           0.32733           0.19424
Line_14                    Line 3-12                 3                12         -0.097868          -0.12396          0.098932          0.088573
Line_15                    Line 7-12                 7                12            0.1648         -0.065052          -0.16453          0.057563
Line_16                   Line 11-13                11                13           0.35085           0.11408          -0.34768          -0.12156
Line_17                   Line 12-14                12                14           0.18314           0.02623          -0.18238         -0.041405
Line_18                   Line 13-15                13                15         0.0076814         -0.038436        -0.0076702           -0.0204
Line_19                   Line 14-15                14                15          0.042381          0.031405         -0.042079         -0.078318
Line_20                   Line 12-16                12                16          0.075078          0.043032         -0.074894         -0.063153
Line_21                   Line 15-17                15                17           -1.0386          -0.24268            1.0544            0.2522
Line_22                   Line 16-17                16                17          -0.17511         -0.036847           0.17655        -0.0030383
Line_23                   Line 17-18                17                18            0.8027           0.24763           -0.7939          -0.22405
Line_24                   Line 18-19                18                19            0.1939           0.16831           -0.1931          -0.17547
Line_25                   Line 19-20                19                20          -0.10624          0.051666           0.10667          -0.07713
Line_26                   Line 15-19                15                19           0.11525           0.15719          -0.11475          -0.16496
Line_27                   Line 20-21                20                21          -0.28667           0.04713           0.28837         -0.059006
Line_28                   Line 21-22                21                22          -0.42837         -0.020994           0.43256          0.017579
Line_29                   Line 22-23                22                23          -0.53256         -0.067579           0.54297          0.076857
Line_30                   Line 23-24                23                24          0.082836           0.10419         -0.082519          -0.15241
Line_31                   Line 23-25                23                25           -1.6256          -0.26159            1.6676           0.38626
Line_32                   Line 26-25                26                25           0.90289           0.21585          -0.90289           -0.1864
Line_33                   Line 25-27                25                27            1.4352           0.30056           -1.3713           -0.1525
Line_34                   Line 27-28                27                28           0.32876        -0.0059206          -0.32655        -0.0043214
Line_35                   Line 28-29                28                29           0.15655         -0.065679          -0.15585          0.046439
Line_36                   Line 30-17                30                17            2.3119           0.92969           -2.3119          -0.70101
Line_37                    Line 8-30                 8                30            0.7416           0.28145          -0.73805          -0.75423
Line_38                   Line 26-30                26                30            2.2371           -0.1146           -2.1973          -0.36572
Line_39                   Line 17-31                17                31           0.14766           0.11522          -0.14574          -0.14731
Line_40                   Line 29-31                29                31         -0.084154         -0.086439          0.084316          0.079205
Line_41                   Line 23-32                23                32           0.92982          0.050542          -0.90201         -0.062355
Line_42                   Line 31-32                31                32          -0.29857           0.12397             0.302          -0.13601
Line_43                   Line 27-32                27                32           0.12527          0.017642          -0.12487         -0.034275
Line_44                   Line 15-33                15                33          0.073064         -0.044185         -0.072814          0.014922
Line_45                   Line 19-34                19                34         -0.035913          -0.10397          0.036471          0.045966
Line_46                   Line 35-36                35                36         0.0083878          0.040362        -0.0083836         -0.042917
Line_47                   Line 35-37                35                37          -0.33839          -0.13036           0.33987           0.12427
Line_48                   Line 33-37                33                37          -0.15719          -0.10492           0.15861           0.07459
Line_49                   Line 34-36                34                36           0.30246          0.046955          -0.30162         -0.049832
Line_50                   Line 34-37                34                37          -0.94307          -0.44197           0.94593           0.44287
Line_51                   Line 38-37                38                37            2.4337             1.136           -2.4337          -0.88013
Line_52                   Line 37-39                37                39           0.54909          0.029795          -0.53917         -0.022981
Line_53                   Line 37-40                37                40           0.44021          -0.03675          -0.42849          0.029599
Line_54                   Line 30-38                30                38           0.62351           0.19026          -0.62091          -0.55979
Line_55                   Line 39-40                39                40           0.26917         -0.087019          -0.26763          0.077485
Line_56                   Line 40-41                40                41           0.15448          0.011926           -0.1541         -0.022135
Line_57                   Line 40-42                40                42          -0.11836         -0.064469            0.1193          0.023017
Line_58                   Line 41-42                41                42           -0.2159         -0.077865           0.21811          0.052382
Line_59                   Line 43-44                43                44          -0.16593         -0.013302            0.1677         -0.037929
Line_60                   Line 34-43                34                43          0.014137          0.016334          -0.01407         -0.056698
Line_61                   Line 44-45                44                45           -0.3277           0.05484           0.33028         -0.066206
Line_62                   Line 45-46                45                46          -0.36328         -0.035669           0.36872          0.021197
Line_63                   Line 46-47                46                47          -0.31111         -0.012182           0.31475        -0.0079481
Line_64                   Line 46-48                46                48          -0.14761         -0.058308           0.14898          0.014187
Line_65                   Line 47-49                47                49         -0.095352          -0.10837          0.095705          0.092803
Line_66                   Line 42-49                42                49           -0.6487          0.052448           0.68037         0.0037017
Line_67                   Line 42-49                42                49           -0.6487          0.052448           0.68037         0.0037017
Line_68                   Line 45-49                45                49            -0.497          -0.02083           0.51437          0.023128
Line_69                   Line 48-49                48                49          -0.34898          0.032067           0.35109         -0.039252
Line_70                   Line 49-50                49                50            0.5366           0.13427          -0.52875          -0.13141
Line_71                   Line 49-51                49                51           0.66627           0.20443          -0.64345          -0.17404
Line_72                   Line 51-52                51                52           0.28559          0.062457          -0.28371         -0.069943
Line_73                   Line 52-53                52                53           0.10371          0.019943          -0.10317          -0.05449
Line_74                   Line 53-54                53                54          -0.12683          -0.05551           0.12735          0.029933
Line_75                   Line 49-54                49                54           0.37766            0.1307          -0.36575          -0.15599
Line_76                   Line 49-54                49                54           0.37744           0.11198          -0.36379           -0.1379
Line_77                   Line 54-55                54                55          0.070734          0.014568         -0.070631         -0.032502
Line_78                   Line 54-56                54                56           0.18528          0.043464          -0.18517          -0.04975
Line_79                   Line 55-56                55                56          -0.21421         -0.058239           0.21448           0.05566
Line_80                   Line 56-57                56                57          -0.22988         -0.091036           0.23211          0.074913
Line_81                   Line 50-57                50                57           0.35875           0.09141          -0.35211          -0.10491
Line_82                   Line 56-58                56                58         -0.066664         -0.036928          0.066857           0.01533
Line_83                   Line 51-58                51                58           0.18786          0.031587          -0.18686          -0.04533
Line_84                   Line 54-59                54                59          -0.30382         -0.075066           0.30904           0.04257
Line_85                   Line 56-59                56                59          -0.27963         -0.041736           0.28674         0.0098743
Line_86                   Line 56-59                56                59          -0.29313         -0.039067           0.30073          0.011295
Line_87                   Line 55-59                55                59          -0.34516         -0.082617           0.35156          0.058784
Line_88                   Line 59-60                59                60          -0.43317          0.035743           0.43939         -0.044049
Line_89                   Line 59-61                59                61          -0.51719          0.050322           0.52639         -0.046258
Line_90                   Line 60-61                60                61           -1.1207          0.085192            1.1241         -0.082274
Line_91                   Line 60-62                60                62         -0.098722         -0.071142          0.098895          0.057378
Line_92                   Line 61-62                61                62           0.25493          -0.13858          -0.25424           0.13199
Line_93                   Line 63-59                63                59            1.5177           0.67483           -1.5177          -0.57025
Line_94                   Line 63-64                63                64           -1.5177          -0.67483            1.5225           0.52506
Line_95                   Line 64-61                64                61           0.30537           0.13986          -0.30537          -0.13683
Line_96                   Line 38-65                38                65           -1.8128          -0.57626            1.8449         -0.083702
Line_97                   Line 64-65                64                65           -1.8279          -0.66492            1.8378           0.40064
Line_98                   Line 49-66                49                66           -1.3222          0.043257            1.3522          0.083249
Line_99                   Line 49-66                49                66           -1.3222          0.043257            1.3522          0.083249
Line_100                  Line 62-66                62                66          -0.37163          -0.17265           0.37931           0.14676
Line_101                  Line 62-67                62                67          -0.24303          -0.14414           0.24499           0.12147
Line_102                  Line 65-66                65                66          0.085406            0.7225         -0.085406          -0.70555
Line_103                  Line 66-67                66                67           0.53161           0.19273          -0.52499          -0.19147
Line_104                  Line 65-68                65                68           0.14182          -0.22433          -0.14178          -0.41847
Line_105                  Line 47-69                47                69           -0.5594           0.11632           0.58684          -0.10066
Line_106                  Line 49-69                49                69           -0.4654           0.10648           0.48782          -0.12059
Line_107                  Line 68-69                68                69            -1.258            1.1282             1.258           -1.0364
Line_108                  Line 69-70                69                70            1.0838           0.16075           -1.0494          -0.13985
Line_109                  Line 24-70                24                70         -0.062153         -0.029741          0.062163         -0.068018
Line_110                  Line 70-71                70                71           0.16653          -0.12377          -0.16615           0.11678
Line_111                  Line 24-72                24                72          0.014672          0.033071         -0.014499         -0.079824
Line_112                  Line 71-72                71                72           0.10602        -0.0093971           -0.1055         -0.031477
Line_113                  Line 71-73                71                73          0.060124          -0.10738             -0.06          0.096514
Line_114                  Line 70-74                70                74           0.16208           0.12893          -0.16011          -0.15422
Line_115                  Line 70-75                70                75        -0.0013324          0.099398         0.0019358          -0.13168
Line_116                  Line 69-75                69                75            1.1001           0.20485           -1.0516          -0.18308
Line_117                  Line 74-75                74                75          -0.51989         -0.061905           0.52355          0.064423
Line_118                  Line 76-77                76                77           -0.6115           -0.2104           0.63205           0.24392
Line_119                  Line 69-77                69                77           0.62209          0.067832          -0.61049          -0.13803
Line_120                  Line 75-77                75                77          -0.34608         -0.095541           0.35411          0.073763
Line_121                  Line 77-78                77                78           0.45395          0.066113          -0.45316         -0.076283
Line_122                  Line 78-79                78                79          -0.25684          -0.18372           0.25737           0.17954
Line_123                  Line 77-80                77                80          -0.96571          -0.37415           0.98344           0.37531
Line_124                  Line 77-80                77                80          -0.44365          -0.20546           0.45046           0.20591
Line_125                  Line 79-80                79                80          -0.64737          -0.29584           0.65505           0.31083
Line_126                  Line 68-81                68                81          -0.44145         -0.046142           0.44202          -0.75539
Line_127                  Line 81-80                81                80          -0.44202           0.75539           0.44202          -0.73046
Line_128                  Line 77-82                77                82         -0.030255           0.17555          0.031667           -0.2528
Line_129                  Line 82-83                82                83          -0.47222           0.24394           0.47557          -0.26993
Line_130                  Line 83-84                83                84          -0.24786           0.14687           0.25346          -0.15992
Line_131                  Line 83-85                83                85          -0.42771           0.11996           0.43666           -0.1229
Line_132                  Line 84-85                84                85          -0.36346          0.089919           0.36791         -0.092391
Line_133                  Line 85-86                85                86           0.17172         -0.073537          -0.17053           0.05091
Line_134                  Line 86-87                86                87         -0.039469          -0.15091              0.04           0.11022
Line_135                  Line 85-88                85                88          -0.50392          0.075997           0.50932         -0.075305
Line_136                  Line 85-89                85                89          -0.71236         0.0067698           0.72489          0.037336
Line_137                  Line 88-89                88                89          -0.98932         -0.024695            1.0033          0.076986
Line_138                  Line 89-90                89                90           0.58219         -0.047243          -0.56478          0.058132
Line_139                  Line 89-90                89                90            1.1083         -0.054421           -1.0793          0.070713
Line_140                  Line 90-91                90                91          0.014124          0.044239          -0.01404         -0.064623
Line_141                  Line 89-92                89                92            2.0154         -0.021041           -1.9756            0.1696
Line_142                  Line 89-92                89                92           0.63595         -0.050668          -0.62018          0.072916
Line_143                  Line 91-92                91                92          -0.08596         -0.066258          0.086361          0.035867
Line_144                  Line 92-93                92                93           0.57623          -0.11658           -0.5672           0.12501
Line_145                  Line 92-94                92                94            0.5217          -0.15214          -0.50749           0.15905
Line_146                  Line 93-94                93                94            0.4472          -0.19501          -0.44181            0.1944
Line_147                  Line 94-95                94                95           0.40861          0.090142          -0.40624         -0.093113
Line_148                  Line 80-96                80                96           0.18967           0.21067          -0.18663          -0.24617
Line_149                  Line 82-96                82                96         -0.099443         -0.065687          0.099633          0.012944
Line_150                  Line 94-96                94                96           0.19788         -0.098217           -0.1966           0.07977
Line_151                  Line 80-97                80                97           0.26423           0.25753          -0.26181          -0.27187
Line_152                  Line 80-98                80                98           0.28949          0.083181          -0.28743          -0.10429
Line_153                  Line 80-99                80                99           0.19564          0.081684          -0.19352          -0.12941
Line_154                 Line 92-100                92               100           0.31497          -0.16532          -0.30707           0.15373
Line_155                 Line 94-100                94               100          0.042809          -0.50538         -0.038663           0.45806
Line_156                  Line 95-96                95                96         -0.013763          -0.21689          0.014549           0.20506
Line_157                  Line 96-97                96                97          -0.11096          -0.20161           0.11181           0.18187
Line_158                 Line 98-100                98               100         -0.052565          0.024288          0.052762         -0.072951
Line_159                 Line 99-100                99               100          -0.22648         -0.045941           0.22741          0.027939
Line_160                Line 100-101               100               101          -0.16743             0.229            0.1698          -0.25128
Line_161                 Line 92-102                92               102           0.44651         -0.083899          -0.44393           0.08127
Line_162                Line 101-102               101               102           -0.3898           0.10128           0.39393          -0.11127
Line_163                Line 100-103               100               103            1.2175          -0.22149            -1.194           0.24358
Line_164                Line 100-104               100               104           0.56185           0.10647          -0.54729         -0.094124
Line_165                Line 103-104               103               104           0.32452           0.13867          -0.31855          -0.15832
Line_166                Line 103-105               103               105           0.43351           0.12849          -0.42249           -0.1348
Line_167                Line 100-106               100               106           0.60361           0.09476          -0.58136          -0.07123
Line_168                Line 104-105               104               105           0.48584          0.026323          -0.48334         -0.026061
Line_169                Line 105-106               105               106          0.088631          0.038799         -0.088482         -0.051517
Line_170                Line 105-107               105               107           0.26755         -0.023749          -0.26347        -0.0055488
Line_171                Line 105-108               105               108           0.23965          -0.11128          -0.23775          0.099223
Line_172                Line 106-107               106               107           0.23984         -0.037253          -0.23653         0.0055053
Line_173                Line 108-109               108               109           0.21775          -0.10922          -0.21709           0.10393
Line_174                Line 103-110               103               110           0.60599          0.083489          -0.59149         -0.061524
Line_175                Line 109-110               109               110           0.13709          -0.13393          -0.13607           0.11772
Line_176                Line 110-111               110               111          -0.35703         0.0095614              0.36         -0.018438
Line_177                Line 110-112               110               112           0.69459          -0.30614             -0.68           0.28512
Line_178                 Line 17-113                17               113          0.020563          0.059006         -0.020523         -0.066462
Line_179                 Line 32-113                32               113          0.041161          -0.17799         -0.039477           0.13399
Line_180                 Line 32-114                32               114          0.093715          0.017777         -0.093577         -0.032207
Line_181                 Line 27-115                27               115           0.20724          0.050604          -0.20642         -0.065251
Line_182                Line 114-115               114               115          0.013577         0.0022075         -0.013577        -0.0047492
Line_183                 Line 68-116                68               116            1.8413          -0.66358             -1.84           0.51323
Line_184                 Line 12-117                12               117           0.20153          0.051973              -0.2             -0.08
Line_185                 Line 75-118                75               118           0.40215           0.23588          -0.39874          -0.23557
Line_186                 Line 76-118                76               118           -0.0685         -0.096919          0.068739           0.08557

OTHER ALGEBRAIC VARIABLES:
                                    

q PV 1                     -0.031041
q PV 2                       -0.1501
q PV 3                        0.1593
q PV 4                       0.63138
q PV 5                      -0.51042
q PV 6                       0.91292
q PV 7                      0.071605
q PV 8                       0.28426
q PV 9                      -0.14274
q PV 10                     -0.14908
q PV 11                      0.50043
q PV 12                      0.10125
q PV 13                     0.039824
q PV 14                      0.32586
q PV 15                     -0.16285
q PV 16                     -0.20827
q PV 17                     0.077251
q PV 18                      0.28454
q PV 19                       0.4103
q PV 20                    -0.050294
q PV 21                       1.1585
q PV 22                      0.03901
q PV 23                     0.046642
q PV 24                    -0.022857
q PV 25                      0.76834
q PV 26                     -0.40394
q PV 27                     0.012584
q PV 28                       0.8151
q PV 29                    -0.019566
q PV 31                     0.096693
q PV 32                      -0.1113
q PV 33                     0.096514
q PV 34                    -0.056252
q PV 35                     0.052681
q PV 36                       0.1217
q PV 37                       1.0547
q PV 38                    -0.056066
q PV 39                      0.11022
q PV 40                     -0.05905
q PV 41                      0.59308
q PV 42                     -0.13088
q PV 43                     -0.13956
q PV 44                     -0.17536
q PV 45                      0.95552
q PV 46                      0.75422
q PV 47                     0.023882
q PV 48                     -0.18335
q PV 49                     0.065578
q PV 50                     0.002808
q PV 51                    -0.018438
q PV 52                      0.41512
q PV 53                     0.067526
q PV 54                      0.51323
q Slack 30                  -0.82424
p Slack 30                    5.1386

